* Device model
.MODEL NDRV NPN( BF=20 RB=100 TF=0.1ns CJC=2pF)

